#======================================================================

# CRYSTAL DATA

#----------------------------------------------------------------------

data_VESTA_phase_1


_chemical_name_common                  'Tungsten oxide (1/2.90) - beta'
_cell_length_a                         12.10000
_cell_length_b                         3.78000
_cell_length_c                         23.40000
_cell_angle_alpha                      90
_cell_angle_beta                       95.00000
_cell_angle_gamma                      90
_space_group_name_H-M_alt              'P 2/m'
_space_group_IT_number                 10

loop_
_space_group_symop_operation_xyz
   'x, y, z'
   '-x, -y, -z'
   '-x, y, -z'
   'x, -y, z'

loop_
   _atom_site_label
   _atom_site_occupancy
   _atom_site_fract_x
   _atom_site_fract_y
   _atom_site_fract_z
   _atom_site_adp_type
   _atom_site_B_iso_or_equiv
   _atom_site_type_symbol
   W1         1.0     0.353000      0.500000      0.026000     Biso  1.000000 W
   W2         1.0     0.063000      0.500000      0.077000     Biso  1.000000 W
   W3         1.0     0.773000      0.500000      0.128000     Biso  1.000000 W
   W4         1.0     0.481000      0.500000      0.178000     Biso  1.000000 W
   W5         1.0     0.192000      0.500000      0.229000     Biso  1.000000 W
   W6         1.0     0.903000      0.500000      0.280000     Biso  1.000000 W
   W7         1.0     0.610000      0.500000      0.331000     Biso  1.000000 W
   W8         1.0     0.322000      0.500000      0.382000     Biso  1.000000 W
   W9         1.0     0.030000      0.500000      0.432000     Biso  1.000000 W
   W10        1.0     0.740000      0.500000      0.483000     Biso  1.000000 W
   O1         1.0     0.353000      0.000000      0.026000     Biso  1.000000 O
   O2         1.0     0.063000      0.000000      0.077000     Biso  1.000000 O
   O3         1.0     0.773000      0.000000      0.128000     Biso  1.000000 O
   O4         1.0     0.481000      0.000000      0.178000     Biso  1.000000 O
   O5         1.0     0.192000      0.000000      0.229000     Biso  1.000000 O
   O6         1.0     0.903000      0.000000      0.280000     Biso  1.000000 O
   O7         1.0     0.610000      0.000000      0.331000     Biso  1.000000 O
   O8         1.0     0.322000      0.000000      0.382000     Biso  1.000000 O
   O9         1.0     0.030000      0.000000      0.432000     Biso  1.000000 O
   O10        1.0     0.740000      0.000000      0.483000     Biso  1.000000 O
   O11        1.0     0.000000      0.500000      0.000000     Biso  1.000000 O
   O12        1.0     0.500000      0.500000      0.000000     Biso  1.000000 O
   O13        1.0     0.208000      0.500000      0.052000     Biso  1.000000 O
   O14        1.0     0.710000      0.500000      0.051000     Biso  1.000000 O
   O15        1.0     0.417000      0.500000      0.102000     Biso  1.000000 O
   O16        1.0     0.128000      0.500000      0.153000     Biso  1.000000 O
   O17        1.0     0.918000      0.500000      0.103000     Biso  1.000000 O
   O18        1.0     0.627000      0.500000      0.153000     Biso  1.000000 O
   O19        1.0     0.337000      0.500000      0.204000     Biso  1.000000 O
   O20        1.0     0.048000      0.500000      0.255000     Biso  1.000000 O
   O21        1.0     0.838000      0.500000      0.204000     Biso  1.000000 O
   O22        1.0     0.546000      0.500000      0.255000     Biso  1.000000 O
   O23        1.0     0.257000      0.500000      0.306000     Biso  1.000000 O
   O24        1.0     0.757000      0.500000      0.306000     Biso  1.000000 O
   O25        1.0     0.466000      0.500000      0.357000     Biso  1.000000 O
   O26        1.0     0.187000      0.500000      0.422000     Biso  1.000000 O
   O27        1.0     0.967000      0.500000      0.356000     Biso  1.000000 O
   O28        1.0     0.675000      0.500000      0.407000     Biso  1.000000 O
   O29        1.0     0.395000      0.500000      0.475000     Biso  1.000000 O
   O30        1.0     0.100000      0.500000      0.526000     Biso  1.000000 O
