
#======================================================================
# CRYSTAL DATA
#----------------------------------------------------------------------
data_VESTA_phase_1

_chemical_name_common                  'Chromium tungstate(V)'
_cell_length_a                         9.268(7)
_cell_length_b                         5.822(5)
_cell_length_c                         4.644(5)
_cell_angle_alpha                      90.000000
_cell_angle_beta                       91.90(5)
_cell_angle_gamma                      90.000000
_cell_volume                           250.444555
_space_group_name_H-M_alt              'C 2/m'
_space_group_IT_number                 12

loop_
_space_group_symop_operation_xyz
   'x, y, z'
   '-x, -y, -z'
   '-x, y, -z'
   'x, -y, z'
   'x+1/2, y+1/2, z'
   '-x+1/2, -y+1/2, -z'
   '-x+1/2, y+1/2, -z'
   'x+1/2, -y+1/2, z'

loop_
   _atom_site_label
   _atom_site_occupancy
   _atom_site_fract_x
   _atom_site_fract_y
   _atom_site_fract_z
   _atom_site_adp_type
   _atom_site_B_iso_or_equiv
   _atom_site_type_symbol
   Cr1        1.0     0.25950(10)  0.000000     0.4903(4)   Biso  0.040000 Cr
   Mo1        1.0     0.000000     0.77090(10)  0.000000    Biso  0.070000 Mo
   O1         1.0     0.1469(5)    0.2440(8)    0.2924(9)   Biso  0.280000 O
   O2         1.0     0.1120(7)    0.000000     0.7826(9)   Biso  0.200000 O
   O3         1.0     0.4069(7)    0.000000     0.1933(9)   Biso  0.260000 O
